<?xml version="1.0" encoding="UTF-8"?>

<!-- generated on 2026-01-31T22:34:47.880416+05:45 by Eclipse SUMO netedit 1.25.0
<neteditConfiguration xmlns:xsi="http://www.w3.org/2001/XMLSchema-instance" xsi:noNamespaceSchemaLocation="http://sumo.dlr.de/xsd/neteditConfiguration.xsd">

    <input>
        <sumo-net-file value="map.net.xml"/>
    </input>

    <output>
        <output-file value="map.net.xml"/>
    </output>

    <processing>
        <geometry.min-radius.fix.railways value="false"/>
        <geometry.avoid-overlap value="false"/>
        <geometry.max-grade.fix value="false"/>
        <offset.disable-normalization value="true"/>
        <lefthand value="1"/>
    </processing>

    <junctions>
        <no-turnarounds value="true"/>
        <junctions.corner-detail value="5"/>
        <junctions.limit-turn-speed value="5.50"/>
        <rectangular-lane-cut value="0"/>
    </junctions>

    <pedestrian>
        <walkingareas value="0"/>
    </pedestrian>

</neteditConfiguration>
-->

<net version="1.20" junctionCornerDetail="5" lefthand="true" limitTurnSpeed="5.50" avoidOverlap="0" xmlns:xsi="http://www.w3.org/2001/XMLSchema-instance" xsi:noNamespaceSchemaLocation="http://sumo.dlr.de/xsd/net_file.xsd">

    <location netOffset="0.00,0.00" convBoundary="-314.92,-258.82,298.83,478.54" origBoundary="-10000000000.00,-10000000000.00,10000000000.00,10000000000.00" projParameter="!"/>

    <edge id=":J12_0" function="internal">
        <lane id=":J12_0_0" index="0" speed="12.87" length="3.84" width="5.00" shape="1.29,-42.83 2.00,-41.93 2.62,-41.38 3.12,-40.79 3.43,-39.75"/>
    </edge>
    <edge id=":J24_0" function="internal">
        <lane id=":J24_0_0" index="0" speed="13.89" length="2.94" width="4.00" shape="-19.55,9.00 -18.69,8.94 -18.09,9.00 -17.49,9.07 -16.62,9.05"/>
    </edge>
    <edge id=":clusterJ13_J8_0" function="internal">
        <lane id=":clusterJ13_J8_0_0" index="0" speed="13.89" length="21.60" width="3.00" shape="-8.96,-7.72 -12.39,-5.46 -16.61,-3.03 -21.87,-0.68 -28.43,1.32"/>
    </edge>
    <edge id=":clusterJ13_J8_1" function="internal">
        <lane id=":clusterJ13_J8_1_0" index="0" speed="13.89" length="21.04" width="3.00" shape="-6.95,-3.34 -13.15,-2.65 -17.78,-1.62 -22.37,-0.29 -28.43,1.32"/>
        <lane id=":clusterJ13_J8_1_1" index="1" speed="13.89" length="21.04" width="3.00" shape="-6.21,-0.18 -12.12,0.40 -16.11,1.19 -20.05,2.28 -25.81,3.78"/>
    </edge>
    <edge id=":clusterJ23_J50_0" function="internal">
        <lane id=":clusterJ23_J50_0_0" index="0" speed="13.89" length="5.99" width="5.00" shape="-29.23,7.45 -27.59,6.87 -26.37,6.79 -25.11,6.79 -23.38,6.43"/>
    </edge>
    <edge id=":clusterJ25_J27_0" function="internal">
        <lane id=":clusterJ25_J27_0_0" index="0" speed="13.89" length="6.79" width="3.50" shape="14.74,21.17 14.31,23.35 14.00,24.87 13.97,26.38 14.33,28.53"/>
        <lane id=":clusterJ25_J27_0_1" index="1" speed="13.89" length="6.79" width="3.50" shape="18.20,21.76 17.82,23.54 17.53,24.78 17.47,26.01 17.74,27.78"/>
    </edge>
    <edge id=":clusterJ25_J27_2" function="internal">
        <lane id=":clusterJ25_J27_2_0" index="0" speed="11.30" length="7.23" width="3.50" shape="10.30,22.76 11.89,24.21 12.98,25.27 13.73,26.52 14.33,28.53"/>
    </edge>
    <edge id=":clusterJ26_J58_0" function="internal">
        <lane id=":clusterJ26_J58_0_0" index="0" speed="13.89" length="23.71" width="3.50" shape="10.28,-17.89 13.63,5.56"/>
        <lane id=":clusterJ26_J58_0_1" index="1" speed="13.89" length="23.71" width="3.50" shape="13.25,-18.30 17.11,5.11"/>
    </edge>
    <edge id=":clusterJ26_J58_2" function="internal">
        <lane id=":clusterJ26_J58_2_0" index="0" speed="12.96" length="23.75" width="3.50" shape="13.25,-18.30 14.81,-10.84 17.15,-5.02 20.28,-0.86 24.19,1.65"/>
    </edge>
    <edge id=":clusterJ39_J40_0" function="internal">
        <lane id=":clusterJ39_J40_0_0" index="0" speed="13.89" length="9.12" width="3.20" shape="20.95,21.11 21.31,18.28 22.05,16.31 22.50,14.39 21.98,11.72"/>
        <lane id=":clusterJ39_J40_0_1" index="1" speed="13.89" length="9.12" width="3.20" shape="20.95,21.11 20.82,18.59 20.50,16.88 19.91,15.22 18.98,12.84"/>
    </edge>
    <edge id=":clusterJ41_J42_J43_0" function="internal">
        <lane id=":clusterJ41_J42_J43_0_0" index="0" speed="10.28" length="18.37" width="3.50" shape="24.52,20.38 24.03,14.40 24.66,9.66 26.39,6.14 29.25,3.85"/>
    </edge>
    <edge id=":clusterJ41_J42_J43_1" function="internal">
        <lane id=":clusterJ41_J42_J43_1_0" index="0" speed="13.89" length="20.05" width="3.50" shape="24.52,20.38 24.31,16.59 24.63,12.33 25.18,7.12 25.60,0.52"/>
        <lane id=":clusterJ41_J42_J43_1_1" index="1" speed="13.89" length="20.05" width="3.50" shape="24.52,20.38 23.76,16.58 22.89,12.29 22.22,7.04 22.11,0.40"/>
    </edge>
    <edge id=":clusterJ44_J47_0" function="internal">
        <lane id=":clusterJ44_J47_0_0" index="0" speed="13.89" length="3.45" width="3.50" shape="40.59,-3.35 39.73,-2.79 39.13,-2.41 38.49,-2.12 37.51,-1.86"/>
    </edge>
    <edge id=":clusterJ54_clusterJ48_clusterJ10_J9_0" function="internal">
        <lane id=":clusterJ54_clusterJ48_clusterJ10_J9_0_0" index="0" speed="13.89" length="19.99" width="3.00" shape="25.01,-3.63 23.41,-9.24 22.35,-13.11 21.70,-17.04 21.31,-22.84"/>
        <lane id=":clusterJ54_clusterJ48_clusterJ10_J9_0_1" index="1" speed="13.89" length="19.99" width="3.00" shape="21.63,-2.73 20.06,-8.52 19.14,-12.60 18.64,-16.74 18.31,-22.72"/>
    </edge>
    <edge id=":clusterJ54_clusterJ48_clusterJ10_J9_2" function="internal">
        <lane id=":clusterJ54_clusterJ48_clusterJ10_J9_2_0" index="0" speed="13.89" length="18.58" width="3.00" shape="15.36,-4.09 18.60,-9.12 20.49,-12.88 21.30,-16.93 21.31,-22.84"/>
        <lane id=":clusterJ54_clusterJ48_clusterJ10_J9_2_1" index="1" speed="13.89" length="18.58" width="3.00" shape="13.14,-7.11 15.88,-11.31 17.53,-14.42 18.28,-17.78 18.31,-22.72"/>
    </edge>
    <edge id=":clusterJ54_clusterJ48_clusterJ10_J9_4" function="internal">
        <lane id=":clusterJ54_clusterJ48_clusterJ10_J9_4_0" index="0" speed="13.48" length="19.90" width="3.00" shape="25.94,-3.88 24.16,-6.19 22.80,-10.12 21.85,-15.67 21.31,-22.84"/>
    </edge>
    <edge id=":clusterJ55_clusterJ51_J53_0" function="internal">
        <lane id=":clusterJ55_clusterJ51_J53_0_0" index="0" speed="13.89" length="23.47" shape="-5.14,3.66 18.31,2.45"/>
    </edge>
    <edge id=":clusterJ55_clusterJ51_J53_1" function="internal">
        <lane id=":clusterJ55_clusterJ51_J53_1_0" index="0" speed="13.89" length="22.06" width="3.50" shape="-5.14,3.66 2.31,2.62 8.19,1.01 12.50,-1.17 15.25,-3.92"/>
        <lane id=":clusterJ55_clusterJ51_J53_1_1" index="1" speed="13.89" length="22.06" width="3.50" shape="-5.14,3.66 0.51,2.58 5.42,0.46 9.60,-2.72 13.03,-6.94"/>
    </edge>
    <edge id=":clusterJ56_clusterJ45_J46_0" function="internal">
        <lane id=":clusterJ56_clusterJ45_J46_0_0" index="0" speed="13.89" length="3.76" width="3.00" shape="36.32,1.80 37.41,1.57 38.14,1.34 38.84,1.02 39.83,0.51"/>
    </edge>
    <edge id=":clusterJ56_clusterJ45_J46_1" function="internal">
        <lane id=":clusterJ56_clusterJ45_J46_1_0" index="0" speed="13.89" length="10.94" width="3.00" shape="29.43,3.76 32.32,2.64 34.64,2.15 36.95,1.66 39.83,0.51"/>
    </edge>
    <edge id=":clusterJ56_clusterJ45_J46_2" function="internal">
        <lane id=":clusterJ56_clusterJ45_J46_2_0" index="0" speed="13.89" length="14.85" width="3.00" shape="25.15,1.73 28.91,1.63 32.68,1.77 36.35,1.58 39.83,0.51"/>
    </edge>
    <edge id=":clusterJ61_clusterJ0_J2_0" function="internal">
        <lane id=":clusterJ61_clusterJ0_J2_0_0" index="0" speed="13.89" length="3.19" width="4.00" shape="36.79,57.87 35.45,54.98"/>
    </edge>
    <edge id=":clusterJ61_clusterJ0_J2_1" function="internal">
        <lane id=":clusterJ61_clusterJ0_J2_1_0" index="0" speed="13.89" length="3.11" width="4.00" shape="33.14,59.49 31.84,56.67"/>
    </edge>
    <edge id=":clusterJ63_clusterJ20_J22_0" function="internal">
        <lane id=":clusterJ63_clusterJ20_J22_0_0" index="0" speed="13.89" length="2.98" width="2.75" shape="-65.27,45.84 -63.27,43.62"/>
    </edge>
    <edge id=":clusterJ63_clusterJ20_J22_1" function="internal">
        <lane id=":clusterJ63_clusterJ20_J22_1_0" index="0" speed="13.89" length="3.01" width="3.20" shape="-67.58,43.93 -65.56,41.70"/>
    </edge>

    <edge id="-E2" from="J6" to="clusterJ44_J47" priority="-1" shape="298.45,-163.68 217.35,-122.81 209.07,-116.53 199.54,-110.38 158.69,-84.73 124.02,-61.27 42.97,-3.05 40.47,-1.51 38.03,-0.18">
        <lane id="-E2_0" index="0" speed="13.89" length="304.95" width="3.00" shape="298.23,-165.25 216.55,-124.09 208.21,-117.76 198.73,-111.65 157.87,-85.99 123.16,-62.50 42.14,-4.30 40.59,-3.35"/>
    </edge>
    <edge id="E0" from="clusterJ61_clusterJ0_J2" to="clusterJ41_J42_J43" priority="-1" shape="34.47,57.60 33.57,55.68 27.49,41.41 25.39,34.92 23.95,29.55 22.96,23.34 21.94,16.90">
        <lane id="E0_0" index="0" speed="13.89" length="36.46" width="4.00" shape="35.45,54.98 35.40,54.86 29.37,40.71 27.31,34.35 25.91,29.13 24.94,23.03 24.52,20.38"/>
    </edge>
    <edge id="E1" from="clusterJ61_clusterJ0_J2" to="clusterJ39_J40" priority="-1" shape="30.60,58.85 23.58,42.34 21.76,36.71 20.14,31.31 19.00,23.84 18.89,17.58">
        <lane id="E1_0" index="0" speed="13.89" length="37.45" width="4.00" shape="31.84,56.67 25.46,41.64 23.67,36.11 22.10,30.87 21.00,23.67 20.95,21.11"/>
    </edge>
    <edge id="E10" from="clusterJ13_J8" to="J65" priority="-1" shape="-17.23,0.85 -19.37,3.42 -23.92,4.87 -32.17,6.84 -37.59,10.21 -41.09,12.67 -44.28,14.95 -47.82,18.27 -51.35,21.90 -305.28,329.04 -314.92,336.95">
        <lane id="E10_0" index="0" speed="13.89" length="441.90" width="3.00" shape="-28.43,1.32 -33.93,2.63 -40.07,6.46 -43.69,9.00 -47.14,11.46 -50.97,15.06 -54.70,18.89 -308.47,325.84 -317.11,332.93"/>
        <lane id="E10_1" index="1" speed="13.89" length="441.90" width="3.00" shape="-25.81,3.78 -32.76,5.44 -38.42,8.96 -41.96,11.45 -45.23,13.79 -48.87,17.20 -52.47,20.90 -306.34,327.97 -315.21,335.25"/>
    </edge>
    <edge id="E14" from="clusterJ63_clusterJ20_J22" to="clusterJ23_J50" priority="-1" shape="-67.34,41.34 -59.46,31.81 -50.81,21.62 -46.73,17.49 -43.71,14.84 -36.49,9.57 -32.88,7.47 -29.94,6.02">
        <lane id="E14_0" index="0" speed="13.89" length="50.41" width="3.20" shape="-65.56,41.70 -58.23,32.84 -49.63,22.70 -45.63,18.66 -42.71,16.09 -35.61,10.91 -32.12,8.88 -29.23,7.45"/>
    </edge>
    <edge id="E15" from="clusterJ63_clusterJ20_J22" to="J24" priority="-1" shape="-65.27,43.86 -46.83,21.98 -42.05,17.71 -35.33,12.74 -32.66,10.99 -28.40,8.86 -21.89,7.95 -15.76,7.07">
        <lane id="E15_0" index="0" speed="13.89" length="57.60" width="2.75" shape="-63.27,43.62 -45.84,22.94 -41.18,18.78 -34.54,13.87 -31.97,12.18 -27.99,10.19 -21.70,9.31 -19.55,9.00"/>
    </edge>
    <edge id="E16" from="J24" to="clusterJ25_J27" priority="-1" shape="-20.82,7.46 -10.03,6.38 -5.59,7.39 -2.16,9.14 0.82,10.89 3.34,12.82 6.65,15.84 9.59,19.30 15.57,25.05">
        <lane id="E16_0" index="0" speed="13.89" length="32.05" width="4.00" shape="-16.62,9.05 -10.16,8.40 -6.28,9.28 -3.12,10.89 -0.30,12.55 2.06,14.36 5.21,17.23 8.13,20.67 10.30,22.76"/>
    </edge>
    <edge id="E17" from="clusterJ26_J58" to="clusterJ25_J27" priority="-1" shape="16.16,-15.82 20.57,18.24 19.58,24.05">
        <lane id="E17_0" index="0" speed="13.89" length="16.28" width="3.50" shape="13.63,5.56 15.26,18.13 14.74,21.17"/>
        <lane id="E17_1" index="1" speed="13.89" length="16.28" width="3.50" shape="17.11,5.11 18.80,18.20 18.20,21.76"/>
    </edge>
    <edge id="E18" from="clusterJ25_J27" to="J28" priority="-1" shape="18.92,25.00 20.76,33.31 22.88,40.26 24.58,44.55 26.05,48.15 27.00,50.52 28.55,53.75 33.68,65.63 54.16,111.89 59.58,124.02 140.72,306.95 148.11,322.36 155.95,337.52 162.99,353.56 175.04,375.34 181.15,387.95 192.07,400.91 203.69,415.50 215.38,431.99 230.26,450.70 238.74,460.48 262.19,478.54">
        <lane id="E18_0" index="0" speed="13.89" length="520.18" width="3.50" shape="14.33,28.53 15.68,34.65 17.92,42.00 19.71,46.51 21.18,50.12 22.19,52.63 23.77,55.93 28.87,67.73 49.36,114.02 54.78,126.16 135.95,309.15 143.41,324.70 151.21,339.78 158.28,355.89 170.38,377.76 176.71,390.83 188.01,404.24 199.49,418.66 211.18,435.14 226.22,454.06 235.12,464.32 258.99,482.70"/>
        <lane id="E18_1" index="1" speed="13.89" length="520.18" width="3.50" shape="17.74,27.78 19.07,33.76 21.23,40.84 22.96,45.20 24.43,48.81 25.40,51.22 26.96,54.48 32.08,66.33 52.56,112.60 57.98,124.73 139.13,307.68 146.54,323.14 154.37,338.27 161.42,354.34 173.49,376.15 179.67,388.91 190.72,402.02 202.29,416.55 213.98,433.04 228.91,451.82 237.53,461.76 261.12,479.93"/>
    </edge>
    <edge id="E2" from="clusterJ56_clusterJ45_J46" to="J6" priority="-1" shape="36.92,0.30 40.71,-1.62 42.71,-2.94 123.75,-60.94 158.74,-84.67 199.63,-110.49 209.02,-116.43 217.59,-122.91 298.83,-164.06">
        <lane id="E2_0" index="0" speed="13.89" length="307.36" width="3.00" shape="39.83,0.51 41.46,-0.32 43.56,-1.70 124.61,-59.71 159.56,-83.41 200.43,-109.22 209.87,-115.20 218.39,-121.63 299.51,-162.72"/>
    </edge>
    <edge id="E20" from="clusterJ26_J58" to="clusterJ56_clusterJ45_J46" priority="-1" shape="16.16,-15.82 16.68,-12.62 20.01,-2.15 21.79,-1.17 25.07,0.11 27.99,0.79 31.34,0.97 37.18,-0.14">
        <lane id="E20_0" index="0" speed="13.89" length="12.33" width="3.50" shape="24.19,1.65 24.55,1.79 27.74,2.53 31.46,2.73 36.32,1.80"/>
    </edge>
    <edge id="E21" from="clusterJ54_clusterJ48_clusterJ10_J9" to="J49" priority="-1" shape="16.98,-18.66 16.73,-24.69 16.60,-31.22 16.76,-35.36 15.94,-40.92 13.43,-47.90 7.42,-59.40 -5.90,-81.46 -78.40,-200.18 -82.73,-204.50 -93.23,-216.33 -100.44,-225.62 -104.09,-232.11 -106.30,-240.27 -108.10,-248.38 -109.18,-258.82">
        <lane id="E21_0" index="0" speed="13.89" length="272.18" width="3.00" shape="21.31,-22.84 21.23,-24.83 21.10,-31.18 21.27,-35.60 20.33,-42.02 17.56,-49.71 11.34,-61.61 -2.05,-83.80 -74.84,-202.99 -79.46,-207.59 -89.77,-219.21 -96.68,-228.12 -99.89,-233.83 -101.93,-241.35 -103.65,-249.10 -104.70,-259.28"/>
        <lane id="E21_1" index="1" speed="13.89" length="272.18" width="3.00" shape="18.31,-22.72 18.23,-24.74 18.10,-31.21 18.26,-35.44 17.40,-41.29 14.81,-48.50 8.73,-60.14 -4.62,-82.24 -77.21,-201.12 -81.64,-205.53 -92.08,-217.29 -99.19,-226.45 -102.69,-232.68 -104.84,-240.63 -106.62,-248.62 -107.69,-258.97"/>
    </edge>
    <edge id="E22" from="clusterJ23_J50" to="clusterJ55_clusterJ51_J53" priority="-1" shape="-24.13,4.05 -20.74,2.98 -17.18,2.25 -5.06,1.14 -1.10,1.20">
        <lane id="E22_0" index="0" speed="13.89" length="18.52" width="5.00" shape="-23.38,6.43 -20.11,5.40 -16.81,4.73 -5.14,3.66"/>
    </edge>
    <edge id="E23" from="clusterJ55_clusterJ51_J53" to="clusterJ54_clusterJ48_clusterJ10_J9" priority="-1" shape="-0.57,-1.15 8.09,-2.25 11.00,-7.02 13.23,-10.47 16.98,-18.66">
        <lane id="E23_0" index="0" speed="13.89" length="0.20" width="3.50" shape="15.25,-3.92 15.36,-4.09"/>
        <lane id="E23_1" index="1" speed="13.89" length="0.20" width="3.50" shape="13.03,-6.94 13.14,-7.11"/>
    </edge>
    <edge id="E24" from="clusterJ55_clusterJ51_J53" to="clusterJ56_clusterJ45_J46" priority="-1" shape="-1.79,2.53 17.84,0.89 27.40,-0.12 37.02,-0.15">
        <lane id="E24_0" index="0" speed="13.89" length="6.88" shape="18.31,2.45 25.15,1.73"/>
    </edge>
    <edge id="E25" from="clusterJ11_J57" to="clusterJ26_J58" priority="-1" shape="-117.22,-257.38 -115.76,-247.63 -113.61,-239.38 -110.72,-230.06 -106.01,-221.71 -98.04,-211.63 -88.28,-200.74 -84.58,-196.49 1.06,-57.57 9.19,-44.45 12.07,-38.48 12.99,-34.01 13.29,-28.86 14.74,-18.51">
        <lane id="E25_0" index="0" speed="13.89" length="277.32" width="3.00" shape="-121.83,-257.78 -120.17,-246.73 -117.94,-238.15 -114.88,-228.27 -109.76,-219.19 -101.48,-208.73 -91.64,-197.75 -88.22,-193.81 -2.77,-55.21 5.24,-42.28 7.77,-37.03 8.52,-33.42 8.81,-28.42 10.28,-17.89"/>
        <lane id="E25_1" index="1" speed="13.89" length="277.32" width="3.00" shape="-118.86,-258.22 -117.23,-247.33 -115.05,-238.97 -112.11,-229.46 -107.26,-220.87 -99.19,-210.66 -89.40,-199.74 -85.79,-195.60 -0.22,-56.78 7.87,-43.73 10.64,-38.00 11.50,-33.81 11.80,-28.71 13.25,-18.30"/>
    </edge>
    <edge id="E26" from="J28" to="clusterJ61_clusterJ0_J2" priority="-1" shape="262.19,478.54 238.73,460.31 230.20,450.50 215.09,431.50 203.73,415.37 192.13,400.94 181.12,387.71 175.07,375.25 163.13,353.58 155.92,337.36 148.11,322.26 140.78,306.88 71.42,150.62 30.58,58.66">
        <lane id="E26_0" index="0" speed="13.89" length="480.63" width="4.00" shape="265.87,473.80 242.87,455.93 234.81,446.66 219.89,427.90 208.53,411.76 196.77,397.14 186.20,384.43 180.40,372.49 168.51,350.91 161.33,334.76 153.48,319.59 146.23,304.37 76.90,148.19 36.79,57.87"/>
        <lane id="E26_1" index="1" speed="13.89" length="480.63" width="4.00" shape="263.42,476.96 240.11,458.85 231.74,449.22 216.69,430.30 205.33,414.17 193.68,399.67 182.81,386.62 176.85,374.33 164.92,352.69 157.72,336.49 149.90,321.37 142.60,306.04 73.25,149.81 33.14,59.49"/>
    </edge>
    <edge id="E27" from="J64" to="clusterJ63_clusterJ20_J22" priority="-1" shape="-310.53,340.25 -305.34,329.22 -67.80,41.84">
        <lane id="E27_0" index="0" speed="13.89" length="382.81" width="3.00" shape="-306.46,342.17 -301.51,331.65 -65.27,45.84"/>
        <lane id="E27_1" index="1" speed="13.89" length="382.81" width="3.00" shape="-309.17,340.89 -304.06,330.03 -67.58,43.93"/>
    </edge>
    <edge id="E3" from="clusterJ41_J42_J43" to="clusterJ56_clusterJ45_J46" priority="-1" shape="21.94,16.90 23.61,11.68 25.75,7.54 28.31,2.36 31.93,0.58 37.01,-0.03">
        <lane id="E3_0" index="0" speed="13.89" length="0.20" width="3.50" shape="29.25,3.85 29.43,3.76"/>
    </edge>
    <edge id="E4" from="clusterJ39_J40" to="clusterJ13_J8" priority="-1" shape="19.01,17.49 15.90,9.16 10.92,3.61 6.52,0.60 0.61,0.96 -8.33,1.57 -12.75,2.18 -19.15,3.68">
        <lane id="E4_0" index="0" speed="13.89" length="34.42" width="3.20" shape="21.98,11.72 20.08,6.63 14.11,-0.03 7.87,-4.29 0.30,-3.83 -6.95,-3.34"/>
        <lane id="E4_1" index="1" speed="13.89" length="34.42" width="3.20" shape="18.98,12.84 17.29,8.32 11.98,2.40 6.97,-1.03 0.51,-0.64 -6.21,-0.18"/>
    </edge>
    <edge id="E5" from="clusterJ41_J42_J43" to="clusterJ54_clusterJ48_clusterJ10_J9" priority="-1" shape="19.76,17.26 20.39,-0.61 19.72,-3.08 18.00,-8.35 16.69,-15.45">
        <lane id="E5_0" index="0" speed="13.89" length="3.72" width="3.50" shape="25.60,0.52 25.66,-1.22 25.01,-3.63"/>
        <lane id="E5_1" index="1" speed="13.89" length="3.72" width="3.50" shape="22.11,0.40 22.15,-0.81 21.63,-2.73"/>
    </edge>
    <edge id="E6" from="clusterJ44_J47" to="clusterJ54_clusterJ48_clusterJ10_J9" priority="-1" shape="38.24,-0.23 33.32,0.89 30.27,0.99 27.79,-0.28 23.78,-3.32 21.07,-8.64 19.74,-18.40">
        <lane id="E6_0" index="0" speed="13.89" length="12.63" width="3.50" shape="37.51,-1.86 33.10,-0.85 30.66,-0.77 28.72,-1.77 25.94,-3.88"/>
    </edge>
    <edge id="E7" from="clusterJ11_J57" to="J12" priority="-1" shape="-123.11,-256.38 -121.68,-246.21 -119.31,-236.66 -115.94,-227.04 -110.73,-217.99 -102.29,-207.25 -92.65,-196.47 -89.50,-192.96 -4.58,-55.22 1.77,-44.95 4.02,-41.22 6.44,-36.59">
        <lane id="E7_0" index="0" speed="13.89" length="250.85" width="3.00" shape="-124.76,-257.37 -123.15,-245.92 -120.75,-236.23 -117.31,-226.41 -111.98,-217.15 -103.44,-206.29 -93.77,-195.47 -90.71,-192.06 -5.86,-54.43 0.49,-44.16 1.29,-42.83"/>
    </edge>
    <edge id="E8" from="J12" to="clusterJ13_J8" priority="-1" shape="6.44,-36.59 7.45,-29.92 6.28,-23.98 5.24,-20.76 3.91,-17.64 1.87,-14.34 -1.01,-11.05 -5.62,-6.96 -17.23,0.85">
        <lane id="E8_0" index="0" speed="13.89" length="37.07" width="5.00" shape="3.43,-39.75 4.91,-29.98 3.86,-24.61 2.90,-21.64 1.68,-18.79 -0.15,-15.83 -2.79,-12.82 -7.15,-8.94 -8.96,-7.72"/>
    </edge>

    <tlLogic id="clusterJ26_J58" type="static" programID="0" offset="0">
        <phase duration="82" state="GGG"/>
        <phase duration="3"  state="yyy"/>
        <phase duration="50"  state="rrr"/>
    </tlLogic>
    <tlLogic id="clusterJ39_J40" type="static" programID="0" offset="0">
        <phase duration="82" state="GG"/>
        <phase duration="3"  state="yy"/>
        <phase duration="5"  state="rr"/>
    </tlLogic>
    <tlLogic id="clusterJ41_J42_J43" type="static" programID="0" offset="0">
        <phase duration="82" state="GGG"/>
        <phase duration="3"  state="yyy"/>
        <phase duration="5"  state="rrr"/>
    </tlLogic>
    <tlLogic id="clusterJ44_J47" type="static" programID="0" offset="0">
        <phase duration="82" state="G"/>
        <phase duration="3"  state="y"/>
        <phase duration="5"  state="r"/>
    </tlLogic>
    <tlLogic id="clusterJ55_clusterJ51_J53" type="static" programID="0" offset="0">
        <phase duration="82" state="GGG"/>
        <phase duration="3"  state="yyy"/>
        <phase duration="5"  state="rrr"/>
    </tlLogic>

    <junction id="J12" type="priority" x="6.44" y="-36.59" incLanes="E7_0" intLanes=":J12_0_0" shape="5.91,-40.12 0.96,-39.37 0.77,-40.45 0.66,-40.83 0.51,-41.18 0.29,-41.60 -0.04,-42.14 2.63,-43.53 3.94,-42.27 4.59,-41.94 5.17,-41.59 5.62,-41.04">
        <request index="0" response="0" foes="0" cont="0"/>
    </junction>
    <junction id="J24" type="priority" x="-16.34" y="6.70" incLanes="E15_0" intLanes=":J24_0_0" shape="-16.82,7.06 -16.42,11.04 -17.52,10.88 -17.89,10.68 -18.27,10.48 -18.73,10.35 -19.36,10.36 -19.75,7.64">
        <request index="0" response="0" foes="0" cont="0"/>
    </junction>
    <junction id="J28" type="dead_end" x="262.19" y="478.54" incLanes="E18_0 E18_1" intLanes="" shape="262.19,478.54 267.10,472.22 257.92,484.09"/>
    <junction id="J49" type="dead_end" x="-109.18" y="-258.82" incLanes="E21_0 E21_1" intLanes="" shape="-103.21,-259.44 -109.18,-258.82"/>
    <junction id="J6" type="dead_end" x="298.83" y="-164.06" incLanes="E2_0" intLanes="" shape="298.91,-163.91 297.56,-166.59 300.19,-161.38"/>
    <junction id="J64" type="dead_end" x="-310.53" y="340.25" incLanes="" intLanes="" shape="-310.53,340.25 -305.10,342.80"/>
    <junction id="J65" type="dead_end" x="-313.91" y="336.83" incLanes="E10_0 E10_1" intLanes="" shape="-318.06,331.77 -314.26,336.41"/>
    <junction id="J66" type="dead_end" x="96.04" y="326.09" incLanes="" intLanes="" shape="96.04,326.09"/>
    <junction id="clusterJ11_J57" type="dead_end" x="-119.74" y="-258.09" incLanes="" intLanes="" shape="-117.38,-258.44 -123.31,-257.55 -126.25,-257.17"/>
    <junction id="clusterJ13_J8" type="priority" x="-17.58" y="1.97" incLanes="E8_0 E4_0 E4_1" intLanes=":clusterJ13_J8_0_0 :clusterJ13_J8_1_0 :clusterJ13_J8_1_1" shape="-10.36,-9.80 -7.57,-5.65 -7.32,-4.91 -5.85,1.40 -9.88,1.74 -12.84,2.13 -15.27,2.62 -17.67,3.24 -20.57,4.02 -24.51,5.01 -29.74,0.09 -25.26,-1.10 -22.02,-2.25 -19.47,-3.52 -17.04,-5.10 -14.19,-7.13">
        <request index="0" response="110" foes="110" cont="0"/>
        <request index="1" response="000" foes="001" cont="0"/>
        <request index="2" response="000" foes="001" cont="0"/>
    </junction>
    <junction id="clusterJ23_J50" type="priority" x="-27.16" y="4.51" incLanes="E14_0" intLanes=":clusterJ23_J50_0_0" shape="-24.13,4.05 -22.63,8.82 -24.82,8.94 -25.64,8.70 -26.44,8.49 -27.36,8.49 -28.52,8.89 -29.94,6.02 -27.86,5.11 -27.10,4.87 -25.39,4.42">
        <request index="0" response="0" foes="0" cont="0"/>
    </junction>
    <junction id="clusterJ25_J27" type="priority" x="18.35" y="24.81" incLanes="E17_0 E17_1 E16_0" intLanes=":clusterJ25_J27_0_0 :clusterJ25_J27_0_1 :clusterJ25_J27_2_0" shape="13.02,20.88 19.92,22.05 19.47,24.03 19.30,24.74 19.21,25.44 19.25,26.28 19.45,27.40 12.62,28.91 11.85,26.85 11.33,26.24 10.69,25.69 9.89,25.07 8.91,24.20 11.69,21.32 12.32,21.73 12.56,21.73 12.76,21.58 12.91,21.30">
        <request index="0" response="000" foes="100" cont="0"/>
        <request index="1" response="000" foes="100" cont="0"/>
        <request index="2" response="011" foes="011" cont="0"/>
    </junction>
    <junction id="clusterJ26_J58" type="traffic_light" x="16.07" y="-17.33" incLanes="E25_0 E25_1" intLanes=":clusterJ26_J58_0_0 :clusterJ26_J58_0_1 :clusterJ26_J58_2_0" shape="26.79,0.51 21.93,2.64 20.00,2.27 19.38,2.51 18.97,3.02 18.80,3.81 18.84,4.89 11.90,5.78 8.80,-17.68 14.74,-18.51 15.73,-13.33 17.12,-8.95 18.93,-5.37 21.14,-2.61 23.76,-0.65">
        <request index="0" response="000" foes="000" cont="0"/>
        <request index="1" response="000" foes="000" cont="0"/>
        <request index="2" response="000" foes="000" cont="0"/>
    </junction>
    <junction id="clusterJ39_J40" type="traffic_light" x="18.89" y="17.58" incLanes="E1_0" intLanes=":clusterJ39_J40_0_0 :clusterJ39_J40_0_1" shape="22.95,21.08 18.95,21.15 18.85,18.21 18.71,17.18 18.46,16.17 18.07,14.98 17.48,13.40 23.48,11.16 24.04,13.17 24.09,14.70 23.83,16.00 23.44,17.33 23.08,18.94">
        <request index="0" response="00" foes="00" cont="0"/>
        <request index="1" response="00" foes="00" cont="0"/>
    </junction>
    <junction id="clusterJ41_J42_J43" type="traffic_light" x="21.94" y="16.90" incLanes="E0_0" intLanes=":clusterJ41_J42_J43_0_0 :clusterJ41_J42_J43_1_0 :clusterJ41_J42_J43_1_1" shape="20.36,0.34 27.35,0.59 27.57,1.72 27.89,2.00 28.35,2.09 28.94,1.99 29.67,1.69 33.92,3.87 30.99,4.64 28.73,6.19 27.16,8.51 26.26,11.59 26.04,15.44 26.49,20.07 22.54,20.69 21.80,16.38 21.18,13.20 20.71,10.56 20.41,7.92 20.28,4.70">
        <request index="0" response="000" foes="000" cont="0"/>
        <request index="1" response="000" foes="000" cont="0"/>
        <request index="2" response="000" foes="000" cont="0"/>
    </junction>
    <junction id="clusterJ44_J47" type="traffic_light" x="37.98" y="-0.49" incLanes="-E2_0" intLanes=":clusterJ44_J47_0_0" shape="39.87,-4.66 41.31,-2.03 40.11,-1.18 39.69,-0.87 39.26,-0.60 38.69,-0.37 37.90,-0.15 37.12,-3.56 38.19,-3.82 38.56,-3.95 38.92,-4.11 39.33,-4.34">
        <request index="0" response="0" foes="0" cont="0"/>
    </junction>
    <junction id="clusterJ54_clusterJ48_clusterJ10_J9" type="priority" x="16.98" y="-18.66" incLanes="E5_0 E5_1 E23_0 E23_1 E6_0" intLanes=":clusterJ54_clusterJ48_clusterJ10_J9_0_0 :clusterJ54_clusterJ48_clusterJ10_J9_0_1 :clusterJ54_clusterJ48_clusterJ10_J9_2_0 :clusterJ54_clusterJ48_clusterJ10_J9_2_1 :clusterJ54_clusterJ48_clusterJ10_J9_4_0" shape="28.09,-4.45 19.94,-2.28 19.07,-4.16 18.54,-4.45 17.95,-4.31 17.30,-3.73 16.58,-2.73 10.17,-5.66 12.34,-8.99 14.09,-11.50 15.42,-13.66 16.32,-15.93 16.78,-18.77 16.81,-22.66 22.81,-22.91 23.13,-18.25 23.67,-14.22 24.44,-10.83 25.43,-8.07 26.65,-5.94">
        <request index="0" response="00000" foes="11100" cont="0"/>
        <request index="1" response="00000" foes="11100" cont="0"/>
        <request index="2" response="00011" foes="10011" cont="0"/>
        <request index="3" response="00011" foes="10011" cont="0"/>
        <request index="4" response="01111" foes="01111" cont="0"/>
    </junction>
    <junction id="clusterJ55_clusterJ51_J53" type="traffic_light" x="-1.10" y="1.20" incLanes="E22_0" intLanes=":clusterJ55_clusterJ51_J53_0_0 :clusterJ55_clusterJ51_J53_1_0 :clusterJ55_clusterJ51_J53_1_1" shape="13.76,-11.63 16.27,-2.22 15.53,-0.32 15.68,0.30 16.17,0.70 17.00,0.89 18.17,0.85 18.44,4.04 -5.17,6.17 -5.10,1.14 -0.78,0.44 3.05,-0.83 6.42,-2.67 9.32,-5.09 11.77,-8.07">
        <request index="0" response="000" foes="000" cont="0"/>
        <request index="1" response="000" foes="000" cont="0"/>
        <request index="2" response="000" foes="000" cont="0"/>
    </junction>
    <junction id="clusterJ56_clusterJ45_J46" type="priority" x="37.32" y="-0.10" incLanes="E20_0 E3_0 E24_0" intLanes=":clusterJ56_clusterJ45_J46_0_0 :clusterJ56_clusterJ45_J46_1_0 :clusterJ56_clusterJ45_J46_2_0" shape="39.15,-0.83 40.51,1.85 37.49,3.32 35.11,4.28 33.04,4.75 30.91,4.79 28.38,4.43 25.09,3.71 25.30,3.84 25.16,3.33 25.15,0.12 28.17,0.01 30.49,0.25 32.42,0.56 34.29,0.66 36.42,0.29">
        <request index="0" response="000" foes="110" cont="0"/>
        <request index="1" response="101" foes="101" cont="0"/>
        <request index="2" response="001" foes="011" cont="0"/>
    </junction>
    <junction id="clusterJ61_clusterJ0_J2" type="priority" x="30.36" y="58.98" incLanes="E26_0 E26_1" intLanes=":clusterJ61_clusterJ0_J2_0_0 :clusterJ61_clusterJ0_J2_1_0" shape="38.62,57.06 31.31,60.30 30.03,57.51 37.26,54.13">
        <request index="0" response="00" foes="00" cont="0"/>
        <request index="1" response="00" foes="00" cont="0"/>
    </junction>
    <junction id="clusterJ63_clusterJ20_J22" type="priority" x="-67.16" y="42.36" incLanes="E27_0 E27_1" intLanes=":clusterJ63_clusterJ20_J22_0_0 :clusterJ63_clusterJ20_J22_1_0" shape="-66.78,40.66 -62.22,44.51 -64.11,46.80 -68.74,42.97">
        <request index="0" response="00" foes="00" cont="0"/>
        <request index="1" response="00" foes="00" cont="0"/>
    </junction>

    <connection from="-E2" to="E6" fromLane="0" toLane="0" via=":clusterJ44_J47_0_0" tl="clusterJ44_J47" linkIndex="0" dir="s" state="O"/>
    <connection from="E0" to="E3" fromLane="0" toLane="0" via=":clusterJ41_J42_J43_0_0" tl="clusterJ41_J42_J43" linkIndex="0" dir="L" state="O"/>
    <connection from="E0" to="E5" fromLane="0" toLane="0" via=":clusterJ41_J42_J43_1_0" tl="clusterJ41_J42_J43" linkIndex="1" dir="s" state="O"/>
    <connection from="E0" to="E5" fromLane="0" toLane="1" via=":clusterJ41_J42_J43_1_1" tl="clusterJ41_J42_J43" linkIndex="2" dir="s" state="O"/>
    <connection from="E1" to="E4" fromLane="0" toLane="0" via=":clusterJ39_J40_0_0" tl="clusterJ39_J40" linkIndex="0" dir="s" state="O"/>