<?xml version="1.0" encoding="UTF-8"?>

<sumoConfiguration
    xmlns:xsi="http://www.w3.org/2001/XMLSchema-instance"
    xsi:noNamespaceSchemaLocation="http://sumo.dlr.de/xsd/sumoConfiguration.xsd">

    <input>
        <net-file value="map.net.xml"/>
        <route-files value="VType.xml,routes.rou.xml,flows_day_1.xml"/>
    </input>

    <!-- Enable mixed traffic behavior -->
    <processing>
      
        <lateral-resolution value="0.2"/>
    </processing>

   

</sumoConfiguration>
